320
AB,273,0,0
AJ,329,82,16
AD,300,146,15
ES,249,147,0
AC,329,165,0
BA,262,283,0
AM,201,407,88
AP,262,452,0
DS,152,465,0
BE,297,546,131
AI,271,592,0
DA,315,651,0
AE,260,709,118
EZ,204,743,74
AG,332,821,0
FM,279,873,130
BQ,347,908,99
BG,273,1033,108
HO,350,1036,119
AZ,251,1109,0
AF,180,1143,25
CS,156,1146,24
GW,250,1169,0
AL,161,1202,0
LS,272,1240,0
MU,176,1285,0
AH,346,1300,0
IP,184,1332,0
KO,231,1378,72
AK,190,1434,8
CN,224,1517,0
GF,323,1752,34
CH,254,1805,31
CD,197,1896,0
JY,280,1955,22
AO,187,1967,0
AN,251,2024,46
GC,293,2144,0
LB,205,2163,0
BP,173,2212,0
AQ,264,2357,27
AW,326,2409,0
AT,255,2421,0
ER,303,2452,0
BU,221,2568,0
BI,281,2581,0
FD,240,2586,19
AS,339,2668,0
BC,338,2848,64
CU,243,2863,103
DE,345,2922,71
BM,319,3027,17
CO,347,3128,173
HG,236,3139,0
BD,168,3246,0
GP,313,3272,109
FC,316,3290,70
BJ,324,3345,159
MI,275,3385,50
GS,342,3390,0
BF,229,3448,114
DK,150,3513,68
AR,262,3522,0
DL,326,3543,0
BW,235,3664,0
AU,328,3756,0
EL,279,3760,0
IU,302,3781,47
BT,233,3838,0
DV,289,3956,5
GT,170,4031,1
DI,186,4178,58
BN,210,4216,0
AX,281,4487,0
BH,163,4632,60
LP,301,4840,23
DG,231,4872,99
AV,295,4976,0
FY,210,5433,0
CG,241,5443,18
IV,231,5623,63
CY,167,5657,26
CJ,338,5698,128
IH,163,5726,59
BL,231,5749,0
AY,274,5892,119
CK,152,5966,0
ED,312,6041,0
CL,309,6119,0
GK,221,6257,90
BK,155,6402,0
DC,178,6467,54
CM,293,6528,69
HJ,173,6540,68
CW,299,6578,134
BV,327,6748,57
DW,199,7098,92
BR,262,7134,83
CI,157,7216,0
CB,235,7423,0
FB,227,7704,38
BO,329,7721,0
EF,349,7730,0
KE,267,7845,0
ET,150,8018,0
GA,215,8045,0
CR,252,8077,56
GN,211,8106,85
DH,235,8135,0
JI,266,8145,40
CZ,218,8230,68
FG,183,8328,0
LX,190,8432,0
CA,211,8508,0
GD,350,8795,0
BY,269,9013,0
IK,258,9020,51
BZ,243,9077,0
KT,323,9434,0
EJ,191,9522,58
DP,264,9897,0
JD,219,10264,0
BS,223,10747,0
CX,214,10963,0
DX,156,11138,0
FS,300,11271,0
FA,309,11316,0
CT,235,11332,0
HE,347,11892,117
BX,278,12212,19
FJ,174,12212,13
KP,344,12270,0
EA,236,12342,0
DF,324,12343,0
GZ,206,12346,19
CF,292,12406,76
CE,246,12710,110
FU,306,12854,0
CQ,231,13013,0
DQ,184,13167,0
EG,174,13465,73
JM,215,13478,0
EV,244,13672,64
EH,227,13697,0
LU,205,13745,0
EX,344,13748,91
KW,210,14066,23
GM,157,14218,0
CP,300,14221,0
FO,282,14368,70
DM,299,14507,0
GJ,266,14628,55
CV,344,14638,20
HB,301,14809,0
EP,163,14976,80
IG,194,15050,81
HM,285,15092,137
GU,291,15103,64
JN,233,15205,60
FX,185,15728,69
FN,201,16082,5
DB,309,16138,41
LT,318,16684,0
DJ,160,16713,0
JV,173,16827,0
DT,232,16875,0
HC,184,17280,0
MA,327,17748,0
DO,348,18204,64
DN,307,18296,12
FP,312,18301,0
LD,249,19017,0
ID,333,19043,150
EC,301,19342,0
GH,294,19411,5
JG,308,19491,0
JU,152,19631,77
DR,274,19709,0
MT,266,19777,0
MJ,151,19839,0
KJ,205,20137,97
MF,292,20514,0
HW,188,20790,53
EI,185,20852,0
FL,214,21010,16
EB,237,21023,104
JS,273,21146,0
FE,335,21165,0
HA,184,21266,0
LM,273,21389,101
DU,234,21442,0
JK,340,21750,0
HU,284,22304,0
FZ,270,22312,0
EM,330,22459,145
GB,306,22569,121
JH,161,22631,0
JF,258,22909,0
MK,290,23243,0
DZ,327,23649,0
EU,170,23723,56
HF,214,23731,87
FK,205,23859,63
DY,291,24283,0
FT,260,25105,98
GI,184,25334,35
MO,245,25413,103
EK,258,25420,37
EO,251,25471,0
KG,244,25562,65
LI,173,26801,26
KV,216,26818,86
HY,224,26968,83
EQ,280,26987,83
IB,333,27149,0
FV,244,27183,0
HX,170,27504,76
EY,275,27873,0
GO,341,27980,147
EN,284,28309,0
HK,229,28309,0
FW,267,28546,0
KY,215,29224,0
KR,283,29359,119
EW,333,29540,0
GE,172,29776,11
GV,339,30688,0
FH,155,30917,0
FQ,322,31052,145
HR,342,31116,0
GY,332,31174,165
IO,331,31371,0
GQ,313,31873,121
FI,219,32060,33
HD,242,32279,58
IJ,204,32396,74
KC,345,32606,122
JP,273,32617,55
FR,289,33419,0
JA,319,33505,0
LF,249,33944,0
LW,270,34317,6
HZ,265,34428,0
MB,284,34853,0
MR,277,34875,71
KS,248,35131,96
HN,275,35521,46
GX,314,35799,121
IN,268,37368,0
IC,207,37630,80
HS,248,37763,0
JZ,319,37776,0
IX,214,38187,0
LR,233,38330,0
IW,232,38415,14
HT,324,38649,0
GL,213,40716,0
IZ,175,41449,0
KZ,299,41728,0
HV,183,42284,0
GR,273,42329,0
JL,196,42764,0
HI,177,43146,24
HQ,244,43475,58
JT,202,43621,0
KX,262,43744,77
LA,311,44157,103
JO,245,44270,88
HP,234,45092,0
JC,281,45523,47
IY,294,45828,114
IE,184,46154,0
MD,334,46293,22
HL,208,46594,25
IF,179,46684,57
JB,150,46738,46
ML,210,46768,0
LE,163,47015,0
IQ,290,47061,0
MS,323,47177,9
LO,235,47256,67
KM,186,47501,69
MG,206,48313,17
IS,174,48650,23
MC,329,49074,0
KU,324,49660,0
KN,264,49775,53
IA,283,49919,56
IM,224,50186,87
KF,224,50334,0
LQ,196,50355,0
KL,200,50706,92
IL,279,51245,91
LV,182,51261,0
LC,316,51624,0
IR,155,51707,0
KD,188,52012,0
JR,249,52374,69
KH,318,53062,0
IT,279,53542,107
MP,303,53731,125
MQ,190,53810,95
LK,304,54475,41
KA,273,55205,101
JE,273,56217,101
ME,271,57112,87
MN,289,57518,27
KB,250,58155,78
JX,311,58683,0
JQ,214,59192,0
JW,270,59799,20
LN,262,60399,16
LJ,326,62445,0
KI,350,64852,0
KQ,319,65433,0
LZ,242,65499,11
LH,226,65723,0
LG,264,66901,15
LY,261,71437,20
MH,326,71669,143
