312
AB,321,0,0
AY,298,85,98
DI,337,118,0
DC,270,147,0
AX,324,202,0
AN,273,210,93
AD,161,233,0
AC,313,241,0
AE,195,270,96
DA,259,273,0
DV,201,438,65
AQ,176,440,0
BU,252,451,73
BO,197,532,70
AF,334,742,86
GI,296,835,0
AG,343,1023,88
AI,227,1111,69
KJ,222,1162,67
AM,237,1185,0
AU,268,1227,39
FQ,219,1229,17
AJ,161,1243,28
BL,321,1399,0
AL,238,1585,0
AH,179,1596,0
DZ,259,1604,0
CG,177,1907,0
FS,310,2003,0
CQ,193,2004,0
FZ,189,2166,0
AK,179,2217,0
DM,185,2233,0
KC,284,2246,0
FE,327,2296,0
CI,229,2345,0
AR,273,2359,101
EK,239,2412,0
LF,211,2415,0
GW,297,2486,0
CW,329,2499,41
DE,232,2574,0
DG,236,2598,0
JG,230,2722,20
CH,215,2731,45
BP,317,2751,52
JN,279,2754,0
AZ,285,2857,3
AT,322,2876,88
JO,177,2892,0
HZ,238,2937,118
AO,298,2941,123
CO,323,2956,0
JY,302,2998,10
BK,300,3010,18
FP,190,3072,0
BA,261,3104,0
BX,183,3124,57
AV,192,3173,0
DP,349,3200,44
EF,330,3267,2
AP,255,3407,0
HB,318,3440,46
EH,334,3501,128
BS,186,3533,0
IF,277,3548,14
BG,266,3596,120
BJ,246,3650,60
AS,228,3682,38
CY,297,3706,148
BV,216,3712,0
BQ,191,3798,0
EL,161,3904,0
BM,262,3905,32
LX,157,3920,0
BR,325,3962,0
HE,186,4008,57
CJ,232,4056,53
LP,301,4109,0
AW,225,4152,35
LB,334,4243,0
BD,205,4254,0
FC,248,4269,77
GJ,312,4310,33
FU,303,4313,91
CT,203,4316,73
BT,214,4586,3
BI,295,4628,37
KS,217,4629,49
DW,276,4645,0
DH,155,4821,0
MI,213,4896,0
CK,344,4959,0
BZ,303,5005,0
CL,243,5456,0
GB,302,5539,16
DR,220,5597,0
FI,272,5631,77
BC,316,5880,18
KW,260,5955,94
IP,300,5972,0
DB,199,5988,0
BH,160,6200,0
IC,233,6280,0
BF,309,6287,113
BE,254,6404,9
BY,287,6419,36
CN,313,7317,8
EN,210,7433,0
GE,331,7448,48
EB,189,7507,0
LM,217,7546,0
LO,156,7576,38
FH,265,7721,119
CF,286,7845,63
CA,184,8287,32
CE,214,8700,37
DK,243,8899,0
DL,251,9025,80
BN,183,9075,23
CM,272,9128,136
EY,267,9919,0
IG,219,9953,0
HU,195,9996,98
BW,252,10026,84
CZ,250,10148,15
DO,269,10470,0
CS,173,10683,54
GM,228,10720,0
GR,193,10889,21
EA,216,10996,77
KY,342,11718,0
CB,273,11721,0
CP,208,11830,0
HS,162,11848,0
CX,229,11871,23
EG,174,11959,0
JL,228,12441,0
CD,158,12869,34
HG,309,12874,60
DS,208,13049,0
ME,241,13077,21
GU,160,13290,0
DN,218,13296,17
LK,153,13565,0
KI,267,13813,108
EU,169,14069,0
LI,256,14120,73
LH,273,14190,0
JR,337,14191,0
KM,286,14545,0
GK,306,14599,0
EO,294,14744,0
FV,273,14945,107
GA,255,15134,0
HQ,273,15233,88
EQ,343,15617,130
CR,169,15746,0
EI,305,15839,0
GD,269,15841,0
HY,164,15841,0
CU,284,15860,0
EC,252,15906,0
JV,248,15930,0
DJ,335,16026,77
HP,206,16139,0
CV,282,16287,0
IB,182,16288,0
HC,314,16291,0
GQ,240,16331,0
HV,271,16613,0
FD,170,16945,0
DF,195,17271,40
DT,273,17516,75
DY,251,17527,0
HF,243,17540,0
ES,237,17548,118
DU,338,17788,0
HJ,154,18165,28
DX,326,18199,0
FA,226,18392,106
JU,159,18418,15
FT,295,18814,0
EP,218,18853,0
FW,182,18873,0
FB,210,19097,21
LA,300,19208,0
ER,191,19444,0
GX,260,19701,105
EW,222,19711,0
GS,339,19739,61
IJ,250,20024,0
FJ,198,20035,0
EJ,157,20231,0
HT,258,20330,0
IW,343,20582,128
JH,164,20604,65
JD,210,20705,0
IM,183,21020,0
EV,304,21165,22
GO,344,21170,107
GT,253,21262,0
HA,338,21291,67
FG,226,21401,94
MH,151,21749,0
GC,175,21763,0
FN,178,22122,40
DQ,253,22313,33
FK,311,22453,119
IQ,337,22626,0
HL,326,22725,0
IE,243,23363,69
EM,290,23718,33
FY,182,23984,77
ML,176,24176,11
ED,218,24298,65
IL,245,24396,0
FM,304,24667,122
FX,253,25031,0
IX,181,25711,30
GF,196,25952,9
IA,168,26198,0
KN,346,26236,134
ET,232,26560,0
KQ,305,26793,119
IZ,221,26842,0
JB,340,26903,0
KX,252,27161,32
JM,327,27686,0
LD,344,28039,0
LU,250,28122,0
JF,267,28561,0
LW,284,28804,0
LY,224,29281,21
GZ,187,29596,32
EX,154,29623,43
HN,235,29928,0
EZ,229,29974,0
HX,332,30057,0
JK,264,30184,0
HM,281,30723,0
FR,225,30860,7
KB,247,31367,0
GP,327,31542,22
KE,332,31999,0
GH,216,32200,54
FL,282,32467,0
JW,254,33309,91
KP,314,33463,73
HO,213,33485,0
IY,194,33746,0
FO,207,33982,0
KR,170,34106,62
JX,172,34566,54
GL,234,34569,58
GN,297,35304,0
GV,304,36881,0
LV,201,36975,0
HW,312,37359,49
MJ,207,37613,0
HI,325,37654,151
LN,245,38020,42
JZ,319,38745,86
IK,170,38910,0
JT,287,38921,0
KO,344,39217,27
LZ,307,40267,0
HD,252,40582,77
HR,213,41226,0
KH,189,41436,0
GY,167,42265,39
MG,265,42900,15
JI,241,43754,77
KG,322,43828,115
JC,169,43997,56
HK,339,44031,0
MF,187,44148,0
KU,167,44253,13
IH,315,45028,88
IS,336,45127,157
IV,235,45351,110
LC,239,45364,43
ID,274,46445,0
IU,307,46723,29
IR,239,46890,0
KF,150,47448,0
KL,207,47654,0
LT,229,49480,0
LG,175,49614,72
KA,252,49725,0
IT,215,49944,0
MK,245,50101,58
JP,222,50154,94
IO,274,50508,0
JE,152,51059,0
IN,280,52480,0
MC,219,54173,20
JS,274,54464,0
KT,284,54769,96
JA,154,55043,16
JQ,174,55678,0
KV,171,55703,46
KZ,310,57526,0
LE,347,61567,124
KD,272,62209,0
LJ,290,62978,0
MA,154,64450,14
LR,295,65008,118
MD,281,65081,0
LS,210,68213,18
LQ,320,72163,0
MB,262,74467,81
